/*--------------------------------*- C++ -*----------------------------------*\
  =========                 |
  \\      /  F ield         | OpenFOAM: The Open Source CFD Toolbox
   \\    /   O peration     | Website:  https://openfoam.org
    \\  /    A nd           | Version:  11
     \\/     M anipulation  |
\*---------------------------------------------------------------------------*/
FoamFile
{
    format      ascii;
    class       dictionary;
    object      blockMeshDict;
}
// * * * * * * * * * * * * * * * * * * * * * * * * * * * * * * * * * * * * * //

scale 1.0;

vertices
  (
	(-0.013084 -0.00732254 -0.015603)
	(0.00225213 -0.00732254 -0.015603)
	(0.00225213 0.00834678 -0.015603)
	(-0.013084 0.00834678 -0.015603)
	(-0.013084 -0.00732254 -0.00666691)
	(0.00225213 -0.00732254 -0.00666691)
	(0.00225213 0.00834678 -0.00666691)
	(-0.013084 0.00834678 -0.00666691)  
);

blocks
(
 	hex (0 1 2 3 4 5 6 7)
 	(30 30 30)  simpleGrading  (1 1 1)
);

boundary
(
	xMin
	{
        type patch;
        faces
        (
        	(0 3 7 4)
        );
    }
     
	xMax
	{
        type patch;
        faces
        (
        	(1 2 6 5)
        );
    } 
    
    yMin
    {
        type patch;
        faces
        (
        	(0 1 5 4)
        );
	}
      
	yMax
	{
        type patch;
        faces
        (
        	(3 7 6 2)
        );
    } 

	zMin
	{
        type patch;
        faces
        (
        	(0 1 2 3)
        );
    } 

	zMax
	{
        type patch;
        faces
        (
        	(4 5 6 7)
        );
    } 
  );
